Version 4
SHEET 1 1444 680
WIRE -192 -1696 -272 -1696
WIRE -192 -1680 -192 -1696
WIRE -192 -1536 -192 -1600
WIRE -144 -1536 -192 -1536
WIRE 0 -1536 -64 -1536
WIRE -192 -1504 -192 -1536
WIRE -192 -1376 -192 -1424
WIRE -336 -1296 -416 -1296
WIRE -192 -1296 -256 -1296
WIRE 288 -1296 -192 -1296
WIRE 1168 -1296 1104 -1296
WIRE 1248 -1296 1168 -1296
WIRE 1328 -1296 1248 -1296
WIRE 1168 -1248 1168 -1296
WIRE -192 -1232 -192 -1296
WIRE 192 -1200 160 -1200
WIRE 288 -1200 288 -1296
WIRE 288 -1200 256 -1200
WIRE 320 -1200 288 -1200
WIRE 448 -1200 384 -1200
WIRE 560 -1200 528 -1200
WIRE 1328 -1200 1328 -1296
WIRE 1248 -1168 1248 -1296
WIRE 1072 -1136 1008 -1136
WIRE 1168 -1136 1168 -1168
WIRE 1168 -1136 1072 -1136
WIRE -192 -1120 -192 -1168
WIRE 16 -1120 16 -1168
WIRE 1168 -1104 1168 -1136
WIRE 1072 -1088 1072 -1136
WIRE 160 -1056 160 -1200
WIRE 320 -1056 160 -1056
WIRE 560 -1056 560 -1200
WIRE 560 -1056 400 -1056
WIRE 560 -1040 560 -1056
WIRE 608 -1040 560 -1040
WIRE 736 -1040 672 -1040
WIRE 784 -1040 736 -1040
WIRE 784 -1024 784 -1040
WIRE 560 -1008 560 -1040
WIRE 560 -1008 240 -1008
WIRE 1072 -976 1072 -1024
WIRE 1168 -976 1168 -1024
WIRE 1168 -976 1072 -976
WIRE 1248 -976 1248 -1104
WIRE 1248 -976 1168 -976
WIRE 1328 -976 1328 -1120
WIRE 1328 -976 1248 -976
WIRE 240 -960 240 -1008
WIRE 272 -960 240 -960
WIRE 1328 -944 1328 -976
WIRE -64 -928 -160 -928
WIRE 48 -928 0 -928
WIRE 160 -928 160 -1056
WIRE 160 -928 128 -928
WIRE 272 -928 160 -928
WIRE 784 -912 784 -944
WIRE -160 -896 -160 -928
WIRE 272 -896 240 -896
WIRE 272 -864 208 -864
WIRE 464 -864 432 -864
WIRE 208 -832 208 -864
WIRE -160 -768 -160 -816
WIRE 1328 -768 1216 -768
WIRE 1328 -624 1328 -688
FLAG 1328 -944 0
FLAG 1104 -1296 Vcc
IOPIN 1104 -1296 Out
FLAG 1008 -1136 Vb
IOPIN 1008 -1136 Out
FLAG 240 -896 Vb
IOPIN 240 -896 In
FLAG 208 -832 0
FLAG 464 -864 Vcc
IOPIN 464 -864 In
FLAG -160 -768 0
FLAG 784 -912 0
FLAG 736 -1040 Vout
FLAG -192 -1120 0
FLAG -416 -1296 CV
IOPIN -416 -1296 In
FLAG 1328 -624 0
FLAG 1216 -768 CV
IOPIN 1216 -768 Out
FLAG -192 -1376 0
FLAG -272 -1696 Vcc
IOPIN -272 -1696 In
FLAG 16 -1120 0
SYMBOL AutoGenerated\\BA4580R 352 -912 R0
SYMATTR InstName U1
SYMBOL voltage 1328 -1216 R0
SYMATTR InstName V1
SYMATTR Value 9.6V
SYMBOL res 1152 -1264 R0
SYMATTR InstName R1
SYMATTR Value 10k
SYMBOL res 1152 -1120 R0
SYMATTR InstName R2
SYMATTR Value 10k
SYMBOL cap 1232 -1168 R0
SYMATTR InstName C1
SYMATTR Value 100µ
SYMBOL cap 1056 -1088 R0
SYMATTR InstName C2
SYMATTR Value 10µ
SYMBOL cap 0 -944 R90
WINDOW 0 0 32 VBottom 2
WINDOW 3 32 32 VTop 2
SYMATTR InstName C3
SYMATTR Value 0.47µ
SYMBOL res 144 -944 R90
WINDOW 0 0 56 VBottom 2
WINDOW 3 32 56 VTop 2
SYMATTR InstName R3
SYMATTR Value 47k
SYMBOL voltage -160 -912 R0
WINDOW 123 24 44 Left 2
WINDOW 39 0 0 Left 2
SYMATTR Value2 AC 1
SYMATTR InstName V2
SYMATTR Value SINE(0 0.1 1k)
SYMBOL cap 256 -1216 R90
WINDOW 0 0 32 VBottom 2
WINDOW 3 32 32 VTop 2
SYMATTR InstName C4
SYMATTR Value 0.22µ
SYMBOL cap 384 -1216 R90
WINDOW 0 0 32 VBottom 2
WINDOW 3 32 32 VTop 2
SYMATTR InstName C5
SYMATTR Value 0.22µ
SYMBOL cap 672 -1056 R90
WINDOW 0 0 32 VBottom 2
WINDOW 3 32 32 VTop 2
SYMATTR InstName C6
SYMATTR Value 1µ
SYMBOL res 768 -1040 R0
SYMATTR InstName R4
SYMATTR Value 100k
SYMBOL res 544 -1216 R90
WINDOW 0 0 56 VBottom 2
WINDOW 3 32 56 VTop 2
SYMATTR InstName R5
SYMATTR Value 400
SYMBOL res 416 -1072 R90
WINDOW 0 0 56 VBottom 2
WINDOW 3 32 56 VTop 2
SYMATTR InstName R6
SYMATTR Value 100k
SYMBOL diode -208 -1232 R0
SYMATTR InstName D1
SYMATTR Value 1N4148
SYMBOL voltage 1328 -784 R0
WINDOW 123 0 0 Left 2
WINDOW 39 24 44 Left 2
SYMATTR SpiceLine Rser=4
SYMATTR InstName V3
SYMATTR Value {Vc}
SYMBOL res -240 -1312 R90
WINDOW 0 0 56 VBottom 2
WINDOW 3 32 56 VTop 2
SYMATTR InstName R7
SYMATTR Value 1k
SYMBOL res -48 -1552 R90
WINDOW 0 0 56 VBottom 2
WINDOW 3 32 56 VTop 2
SYMATTR InstName R8
SYMATTR Value 1k
SYMBOL res -208 -1520 R0
SYMATTR InstName R9
SYMATTR Value 50k
SYMBOL res -208 -1696 R0
SYMATTR InstName R10
SYMATTR Value 50k
SYMBOL cap 0 -1232 R0
SYMATTR InstName C7
SYMATTR Value 100p
TEXT -64 -696 Left 2 !.ac oct 1000 1 100MEG
TEXT -56 -664 Left 2 !.step param Vc 0 5 1
